Version 4
SHEET 1 880 680
WIRE 80 80 0 80
WIRE 240 80 192 80
WIRE 80 112 0 112
WIRE 80 208 0 208
WIRE 240 208 192 208
WIRE 80 240 0 240
FLAG 0 80 clk
IOPIN 0 80 In
FLAG 0 208 clk
IOPIN 0 208 In
FLAG 0 112 D0
IOPIN 0 112 In
FLAG 0 240 D1
IOPIN 0 240 In
FLAG 240 80 AB0
IOPIN 240 80 Out
FLAG 240 208 AB1
IOPIN 240 208 Out
SYMBOL dff 128 96 R0
SYMATTR InstName X1
SYMBOL dff 128 224 R0
SYMATTR InstName X2
TEXT -48 -72 Left 2 !.lib C:\\Users\\96279\\Downloads\\Tech_models.txt
TEXT -640 440 Left 2 !.tran 160n
