Version 4
SHEET 1 880 680
FLAG 32 112 clk
IOPIN 32 112 In
FLAG 32 240 clk
IOPIN 32 240 In
FLAG 32 144 D0
IOPIN 32 144 In
FLAG 32 272 D1
IOPIN 32 272 In
FLAG 144 112 AB0
IOPIN 144 112 Out
FLAG 144 240 AB1
IOPIN 144 240 Out
SYMBOL MSDFF 80 128 R0
SYMATTR InstName X1
SYMBOL MSDFF 80 256 R0
SYMATTR InstName X2
TEXT 72 -72 Left 2 !.inc C:\\Users\\96279\\Downloads\\Tech_models.txt
TEXT -376 472 Left 2 !.tran 100n
