Version 4
SHEET 1 880 680
WIRE 64 80 -32 80
WIRE 352 96 288 96
WIRE 64 112 -32 112
WIRE 64 208 -32 208
WIRE 352 224 288 224
WIRE 64 240 -32 240
FLAG -32 80 A0
IOPIN -32 80 In
FLAG -32 112 B0
IOPIN -32 112 In
FLAG -32 208 A1
IOPIN -32 208 In
FLAG 352 224 D1
IOPIN 352 224 Out
FLAG 352 96 D0
IOPIN 352 96 Out
FLAG -32 240 B1
IOPIN -32 240 In
SYMBOL XOR_GATE 176 96 R0
SYMATTR InstName X1
SYMBOL XOR_GATE 176 224 R0
SYMATTR InstName X2
TEXT -168 -64 Left 2 !.lib C:\\Users\\96279\\Downloads\\Tech_models.txt
TEXT -168 -40 Left 2 !.tran 160n
