Version 4
SHEET 1 2912 1304
FLAG 32 96 wl0
IOPIN 32 96 In
FLAG 464 80 wl0
IOPIN 464 80 In
FLAG 32 400 wl1
IOPIN 32 400 In
FLAG 464 400 wl1
IOPIN 464 400 In
FLAG 464 112 WRITE
IOPIN 464 112 In
FLAG 32 128 WRITE
IOPIN 32 128 In
FLAG 32 432 WRITE
IOPIN 32 432 In
FLAG 464 432 WRITE
IOPIN 464 432 In
FLAG 32 0 Data0
IOPIN 32 0 In
FLAG 32 304 Data0
IOPIN 32 304 In
FLAG 464 -16 Data1
IOPIN 464 -16 In
FLAG 464 304 Data1
IOPIN 464 304 In
FLAG 464 16 PC
IOPIN 464 16 In
FLAG 32 32 PC
IOPIN 32 32 In
FLAG 464 336 PC
IOPIN 464 336 In
FLAG 32 336 PC
IOPIN 32 336 In
FLAG 464 464 ~Data1
IOPIN 464 464 In
FLAG 32 464 ~Data0
IOPIN 32 464 In
FLAG 464 144 ~Data1
IOPIN 464 144 In
FLAG 32 160 ~Data0
IOPIN 32 160 In
FLAG 464 48 vdd
IOPIN 464 48 In
FLAG 32 368 vdd
IOPIN 32 368 In
FLAG 464 368 vdd
IOPIN 464 368 In
FLAG 32 64 vdd
IOPIN 32 64 In
FLAG 208 32 A00
IOPIN 208 32 Out
FLAG 640 16 A01
IOPIN 640 16 Out
FLAG 640 336 A11
IOPIN 640 336 Out
FLAG 640 400 ~A11
IOPIN 640 400 Out
FLAG 640 80 ~A01
IOPIN 640 80 Out
FLAG 208 96 ~A00
IOPIN 208 96 Out
FLAG 208 336 A10
IOPIN 208 336 Out
FLAG 208 400 ~A10
IOPIN 208 400 Out
FLAG 32 672 ~SE
IOPIN 32 672 In
FLAG 32 640 SE
IOPIN 32 640 In
FLAG 32 704 vdd
IOPIN 32 704 In
FLAG 480 672 ~SE
IOPIN 480 672 In
FLAG 480 640 SE
IOPIN 480 640 In
FLAG 480 704 vdd
IOPIN 480 704 In
FLAG 208 368 bit0
IOPIN 208 368 BiDir
FLAG 192 656 bit0
IOPIN 192 656 BiDir
FLAG 640 368 bit1
IOPIN 640 368 BiDir
FLAG 640 656 bit1
IOPIN 640 656 BiDir
FLAG 208 432 ~bit0
IOPIN 208 432 BiDir
FLAG 192 688 ~bit0
IOPIN 192 688 BiDir
FLAG 640 688 ~bit1
IOPIN 640 688 BiDir
FLAG 640 432 ~bit1
IOPIN 640 432 BiDir
FLAG 208 64 bit0
IOPIN 208 64 BiDir
FLAG 640 48 bit1
IOPIN 640 48 BiDir
FLAG 208 128 ~bit0
IOPIN 208 128 BiDir
FLAG 640 112 ~bit1
IOPIN 640 112 BiDir
SYMBOL SRAM_cell 112 80 R0
SYMATTR InstName X1
SYMBOL SRAM_cell 544 64 R0
SYMATTR InstName X2
SYMBOL SRAM_cell 112 384 R0
SYMATTR InstName X3
SYMBOL SRAM_cell 544 384 R0
SYMATTR InstName X4
SYMBOL se 112 672 R0
SYMATTR InstName X5
SYMBOL se 560 672 R0
SYMATTR InstName X6
TEXT -1384 1288 Left 2 !.tran 1000n
TEXT 32 -224 Left 2 !.lib C:\\Users\\96279\\Downloads\\Tech_models.txt
