Version 4
SHEET 1 1244 708
WIRE 528 80 448 80
WIRE 608 80 528 80
WIRE 688 80 608 80
WIRE 816 80 688 80
WIRE 448 160 448 80
WIRE 608 160 608 80
WIRE 528 208 528 80
WIRE 528 208 448 208
WIRE 688 208 688 80
WIRE 688 208 608 208
WIRE 784 256 608 256
WIRE 448 272 448 256
WIRE 688 272 448 272
WIRE 400 304 400 240
WIRE 400 304 224 304
WIRE 496 304 400 304
WIRE 688 336 688 272
WIRE 688 336 656 336
WIRE 784 336 784 256
WIRE 784 336 688 336
WIRE 832 336 784 336
WIRE 1104 336 1040 336
WIRE 400 384 224 384
WIRE 400 400 400 384
WIRE 560 400 560 240
WIRE 560 400 400 400
WIRE 656 400 656 336
WIRE 784 448 656 448
WIRE 496 480 496 304
WIRE 608 480 496 480
WIRE 656 512 656 496
WIRE 784 512 784 448
WIRE 784 512 656 512
WIRE 656 544 656 512
WIRE 784 592 656 592
WIRE 400 624 400 400
WIRE 608 624 400 624
WIRE 656 656 656 640
WIRE 784 656 784 592
WIRE 784 656 656 656
WIRE 656 688 656 656
FLAG 816 160 0
FLAG 224 304 Input-1
IOPIN 224 304 In
FLAG 224 384 Input-2
IOPIN 224 384 In
FLAG 1104 336 Output
IOPIN 1104 336 Out
FLAG 656 688 0
SYMBOL nmos4 608 400 R0
SYMATTR InstName M3
SYMATTR Value2 l=32n w=128n
SYMBOL nmos4 608 544 R0
SYMATTR InstName M4
SYMATTR Value2 l=32n w=128n
SYMBOL voltage 816 64 R0
WINDOW 123 0 0 Left 2
WINDOW 39 0 0 Left 2
SYMATTR InstName V1
SYMATTR Value 1
SYMBOL Invertor1 928 336 R0
SYMATTR InstName Invertor
SYMBOL pmos4 560 160 R0
SYMATTR InstName M1
SYMATTR Value2 l=32n w=128n
SYMBOL pmos4 400 160 R0
SYMATTR InstName M2
SYMATTR Value2 l=32n w=128n
TEXT -104 48 Left 2 !.lib C:\\Users\\96279\\Downloads\\Tech_models.txt
