Version 4
SHEET 1 880 680
WIRE 160 80 32 80
WIRE 176 80 160 80
WIRE 176 96 176 80
WIRE 224 96 176 96
WIRE 528 112 464 112
WIRE 576 112 528 112
WIRE 224 128 144 128
WIRE 144 160 144 128
WIRE 144 208 144 160
FLAG 32 160 0
FLAG 144 288 0
FLAG 160 80 Input-1
FLAG 528 112 Output
FLAG 144 160 Input-2
SYMBOL voltage 32 64 R0
WINDOW 3 -280 130 Left 2
WINDOW 123 0 0 Left 2
WINDOW 39 0 0 Left 2
SYMATTR InstName V1
SYMATTR Value PULSE(0 1 0 1n 1n 20n 40n 6)
SYMBOL voltage 144 192 R0
WINDOW 123 0 0 Left 2
WINDOW 39 0 0 Left 2
SYMATTR InstName V2
SYMATTR Value PULSE(0 1 0 1n 1n 40n 80n 6)
SYMBOL ANDGATE 336 112 R0
SYMATTR InstName AND_GATE
TEXT -248 224 Left 2 !.tran 240n
