Version 4
SHEET 1 880 680
WIRE 32 0 -368 0
WIRE -272 96 -416 96
WIRE -16 96 -64 96
WIRE 96 96 -16 96
WIRE 416 112 336 112
WIRE 32 128 32 0
WIRE 96 128 32 128
WIRE -416 192 -416 96
WIRE -416 240 -416 192
WIRE 96 240 -416 240
WIRE 416 256 336 256
WIRE 32 272 32 128
WIRE 96 272 32 272
FLAG -368 0 en
IOPIN -368 0 In
FLAG -416 192 row#
IOPIN -416 192 In
FLAG -16 96 ~row#
FLAG 416 112 WL0
IOPIN 416 112 Out
FLAG 416 256 WL1
IOPIN 416 256 Out
SYMBOL ANDGATE 208 112 R0
SYMATTR InstName x1
SYMBOL ANDGATE 208 256 R0
SYMATTR InstName x2
SYMBOL Invertor1 -176 96 R0
SYMATTR InstName inv
TEXT -208 -112 Left 2 !.lib C:\\Users\\96279\\Downloads\\Tech_models.txt
TEXT -528 344 Left 2 !.tran 30n
