Version 4
SHEET 1 880 680
WIRE -48 64 -416 64
WIRE 176 64 64 64
WIRE 64 80 64 64
WIRE 64 80 48 80
WIRE 320 80 272 80
WIRE 400 80 320 80
WIRE -48 96 -80 96
WIRE 176 96 144 96
WIRE 144 176 144 96
WIRE 336 176 144 176
WIRE -80 192 -80 96
WIRE -80 192 -144 192
WIRE 320 192 320 80
WIRE 320 192 144 192
WIRE -80 272 -80 192
WIRE -48 272 -80 272
WIRE 144 272 144 192
WIRE 192 272 144 272
WIRE 64 288 48 288
WIRE 336 288 336 176
WIRE 336 288 288 288
WIRE 400 288 336 288
WIRE -416 304 -416 64
WIRE -416 304 -576 304
WIRE -368 304 -416 304
WIRE -48 304 -160 304
WIRE 64 304 64 288
WIRE 192 304 64 304
FLAG -144 192 clk
IOPIN -144 192 In
FLAG -576 304 D
IOPIN -576 304 In
FLAG 400 80 Q
IOPIN 400 80 Out
FLAG 400 288 ~Q
IOPIN 400 288 Out
SYMBOL nand 0 80 R0
SYMATTR InstName X1
SYMBOL nand 224 80 R0
SYMATTR InstName X2
SYMBOL nand 0 288 R0
SYMATTR InstName X3
SYMBOL nand 240 288 R0
SYMATTR InstName X4
SYMBOL Invertor1 -272 304 R0
SYMATTR InstName X5
TEXT -280 -184 Left 2 !.lib C:\\Users\\96279\\Downloads\\Tech_models.txt
