Version 4
SHEET 1 2464 680
WIRE 528 160 432 160
WIRE 704 160 528 160
WIRE 912 160 704 160
WIRE 224 176 192 176
WIRE 304 176 224 176
WIRE 496 192 432 192
WIRE 704 192 496 192
WIRE 912 192 704 192
WIRE 224 208 192 208
WIRE 304 208 224 208
WIRE 688 320 448 320
WIRE 912 320 688 320
WIRE 688 352 448 352
WIRE 912 352 688 352
WIRE 528 416 528 160
WIRE 560 416 528 416
WIRE 912 416 768 416
WIRE 912 448 816 448
WIRE 496 480 496 192
WIRE 560 480 496 480
WIRE 816 480 816 448
WIRE 816 480 768 480
FLAG 304 352 row
IOPIN 304 352 In
FLAG 912 224 PC
IOPIN 912 224 In
FLAG 912 256 SE
IOPIN 912 256 In
FLAG 912 288 vdd
IOPIN 912 288 In
FLAG 912 384 WRITE
IOPIN 912 384 In
FLAG 912 480 ~SE
IOPIN 912 480 In
FLAG 1584 432 0
FLAG 1584 208 0
FLAG 1584 128 SE
IOPIN 1584 128 In
FLAG 1584 352 ~SE
IOPIN 1584 352 In
FLAG 1584 32 0
FLAG 1584 -48 vdd
IOPIN 1584 -48 In
FLAG 1792 32 0
FLAG 1792 -48 PC
IOPIN 1792 -48 In
FLAG 2112 256 0
FLAG 2112 176 WRITE
IOPIN 2112 176 In
FLAG 1120 144 r0_d0
IOPIN 1120 144 Out
FLAG 1120 176 r0_d1
IOPIN 1120 176 Out
FLAG 1120 208 r1_d0
IOPIN 1120 208 Out
FLAG 1120 240 r1_d1
IOPIN 1120 240 Out
FLAG 1120 272 bit0
IOPIN 1120 272 Out
FLAG 1120 304 bit1
IOPIN 1120 304 Out
FLAG 1584 640 0
FLAG 1584 560 row
IOPIN 1584 560 In
FLAG 96 144 A0
IOPIN 96 144 In
FLAG 96 176 A1
IOPIN 96 176 In
FLAG 96 208 B0
IOPIN 96 208 In
FLAG 96 240 B1
IOPIN 96 240 In
FLAG -336 416 0
FLAG -336 192 0
FLAG -336 112 A1
IOPIN -336 112 In
FLAG -336 336 B0
IOPIN -336 336 In
FLAG -336 16 0
FLAG -336 -64 B1
IOPIN -336 -64 In
FLAG -336 624 0
FLAG -336 544 A0
IOPIN -336 544 In
FLAG 608 -80 0
FLAG 608 -160 en
IOPIN 608 -160 In
FLAG 304 144 clk
IOPIN 304 144 In
FLAG 304 320 en
IOPIN 304 320 In
FLAG 1008 -80 0
FLAG 1008 -160 clk
IOPIN 1008 -160 In
FLAG 224 176 D0
FLAG 704 160 Data0
FLAG 704 192 Data1
FLAG 224 208 D1
FLAG 688 320 wl0
FLAG 688 352 wl1
FLAG 1120 336 ~r0_d0
IOPIN 1120 336 Out
FLAG 1120 368 ~r0_d1
IOPIN 1120 368 Out
FLAG 1120 400 ~r1_d0
IOPIN 1120 400 Out
FLAG 1120 432 ~r1_d1
IOPIN 1120 432 Out
FLAG 1120 464 ~bit0
IOPIN 1120 464 Out
FLAG 1120 496 ~bit1
IOPIN 1120 496 Out
SYMBOL 2bitxor 144 192 R0
SYMATTR InstName 2Bit_XOR
SYMBOL decoder 368 336 R0
SYMATTR InstName X2
SYMBOL 2x2Sram 1008 320 R0
SYMATTR InstName X3
SYMBOL Invertor1 656 416 R0
SYMATTR InstName X4
SYMBOL Invertor1 656 480 R0
SYMATTR InstName X5
SYMBOL voltage 1584 112 R0
WINDOW 123 0 0 Left 2
WINDOW 39 0 0 Left 2
WINDOW 3 -181 122 Left 2
SYMATTR Value PULSE(0 1.1 2n 100p 100p 300p 10n)
SYMATTR InstName V1
SYMBOL voltage 1584 336 R0
WINDOW 123 0 0 Left 2
WINDOW 39 0 0 Left 2
SYMATTR InstName V2
SYMATTR Value PULSE(1.1 0 2n 100p 100p 300p 10n)
SYMBOL voltage 1584 -64 R0
WINDOW 123 0 0 Left 2
WINDOW 39 0 0 Left 2
SYMATTR InstName V3
SYMATTR Value 1.1
SYMBOL voltage 1792 -64 R0
WINDOW 123 0 0 Left 2
WINDOW 39 0 0 Left 2
SYMATTR InstName V4
SYMATTR Value PULSE(1.1 0 0 100p 100p 1n 10n 100)
SYMBOL voltage 2112 160 R0
WINDOW 123 0 0 Left 2
WINDOW 39 0 0 Left 2
WINDOW 3 -182 123 Left 2
SYMATTR Value PULSE(0 1.1 0 1n 1n 5ns 10ns)
SYMATTR InstName V5
SYMBOL voltage 1584 544 R0
WINDOW 123 0 0 Left 2
WINDOW 39 0 0 Left 2
SYMATTR InstName V6
SYMATTR Value PULSE(0 1.1 0 1n 1n 40ns 80ns)
SYMBOL voltage -336 96 R0
WINDOW 123 0 0 Left 2
WINDOW 39 0 0 Left 2
WINDOW 3 -181 122 Left 2
SYMATTR Value PULSE(0 1.1 0 1n 1n 80n 160n)
SYMATTR InstName V7
SYMBOL voltage -336 320 R0
WINDOW 123 0 0 Left 2
WINDOW 39 0 0 Left 2
SYMATTR InstName V8
SYMATTR Value PULSE(0 1.1 0 1n 1n 31n 50n)
SYMBOL voltage -336 -80 R0
WINDOW 123 0 0 Left 2
WINDOW 39 0 0 Left 2
SYMATTR InstName V9
SYMATTR Value PULSE(0 1.1 0 1n 1n 63n 100n)
SYMBOL voltage -336 528 R0
WINDOW 123 0 0 Left 2
WINDOW 39 0 0 Left 2
SYMATTR InstName V10
SYMATTR Value PULSE(0 1.1 0 1n 1n 40n 80n)
SYMBOL voltage 608 -176 R0
WINDOW 123 0 0 Left 2
WINDOW 39 0 0 Left 2
SYMATTR InstName V11
SYMATTR Value PWL(0 0 49n 0 50n 1)
SYMBOL voltage 1008 -176 R0
WINDOW 123 0 0 Left 2
WINDOW 39 0 0 Left 2
SYMATTR InstName V12
SYMATTR Value PULSE(0 1.1 0 2n 2n 22ns 44ns)
SYMBOL 2bitMSDFF 368 176 R0
SYMATTR InstName X6
TEXT 624 -400 Left 2 !.lib C:\\Users\\96279\\Downloads\\Tech_models.txt
TEXT 632 -360 Left 2 !.tran 300n
