Version 4
SHEET 1 880 680
WIRE 144 128 96 128
WIRE 192 128 144 128
WIRE 464 128 400 128
WIRE 512 128 464 128
WIRE 96 144 96 128
FLAG 96 224 0
FLAG 144 128 input
FLAG 464 128 output
SYMBOL voltage 96 128 R0
WINDOW 123 0 0 Left 2
WINDOW 39 0 0 Left 2
SYMATTR InstName V1
SYMATTR Value PULSE(0 1 0 1n 1n 30n 60n 6)
SYMBOL Invertor1 288 128 R0
SYMATTR InstName Invertor
TEXT 120 248 Left 2 !.tran 240n
