Version 4
SHEET 1 880 680
WIRE -48 16 -96 16
WIRE -16 16 -48 16
WIRE 208 16 192 16
WIRE 208 128 208 16
WIRE 224 128 208 128
WIRE 416 128 336 128
WIRE 528 128 416 128
WIRE -48 144 -48 16
WIRE 0 144 -48 144
WIRE 160 144 112 144
WIRE 208 144 160 144
WIRE 208 160 208 144
WIRE 224 160 208 160
WIRE 384 160 336 160
WIRE 0 176 -96 176
FLAG 384 224 0
FLAG 528 192 0
FLAG 160 208 0
FLAG -96 176 D
IOPIN -96 176 In
FLAG -96 16 clk
IOPIN -96 16 In
FLAG 416 128 Q
IOPIN 416 128 Out
FLAG 384 160 ~Q
IOPIN 384 160 Out
SYMBOL dff 48 160 R0
SYMATTR InstName X1
SYMBOL dff 272 144 R0
SYMATTR InstName X2
SYMBOL Invertor1 80 16 R0
SYMATTR InstName X3
SYMBOL cap 144 144 R0
SYMATTR InstName C1
SYMATTR Value 100f
SYMBOL cap 512 128 R0
SYMATTR InstName C2
SYMATTR Value 100f
SYMBOL cap 368 160 R0
WINDOW 0 -33 44 Left 2
SYMATTR InstName C3
SYMATTR Value 100f
TEXT 320 -24 Left 2 !.inc C:\\Users\\96279\\Downloads\\Tech_models.txt
