Version 4
SHEET 1 880 680
WIRE 64 144 0 144
WIRE 368 160 304 160
WIRE 640 160 576 160
WIRE 64 176 0 176
FLAG 0 144 A
IOPIN 0 144 In
FLAG 0 176 B
IOPIN 0 176 In
FLAG 640 160 out
IOPIN 640 160 Out
SYMBOL ANDGATE 176 160 R0
SYMATTR InstName X1
SYMBOL Invertor1 464 160 R0
SYMATTR InstName X3
TEXT 160 8 Left 2 !.lib C:\\Users\\96279\\Downloads\\Tech_models.txt
TEXT -344 360 Left 2 !.tran 80n
