Version 4
SHEET 1 880 680
WIRE 48 112 -48 112
WIRE 80 112 48 112
WIRE 384 128 304 128
WIRE 464 128 384 128
WIRE 80 144 32 144
WIRE 32 176 32 144
WIRE 32 224 32 176
FLAG -48 192 0
FLAG 32 304 0
FLAG 48 112 input-1
FLAG 32 176 input-2
FLAG 384 128 output
SYMBOL ORGATE 192 128 R0
SYMATTR InstName OR_GATE
SYMBOL voltage -48 96 R0
WINDOW 3 -314 130 Left 2
WINDOW 123 0 0 Left 2
WINDOW 39 0 0 Left 2
SYMATTR InstName V1
SYMATTR Value PULSE(0 1 0 1n 1n 40n 80n 12)
SYMBOL voltage 32 208 R0
WINDOW 123 0 0 Left 2
WINDOW 39 0 0 Left 2
SYMATTR InstName V2
SYMATTR Value PULSE(0 1 0 1n 1n 80n 160n 12)
TEXT -360 248 Left 2 !.tran 250n
