Version 4
SHEET 1 880 680
WIRE 32 96 -48 96
WIRE 48 96 32 96
WIRE -48 128 -48 96
WIRE 48 144 48 96
WIRE 96 144 48 144
WIRE 416 160 320 160
WIRE 528 160 416 160
WIRE 48 176 16 176
WIRE 96 176 48 176
WIRE 16 240 16 176
FLAG 16 320 0
FLAG -48 208 0
FLAG 32 96 INPUT-1
FLAG 48 176 INPUT-2
FLAG 416 160 OUTPUT
SYMBOL XOR_GATE 208 160 R0
SYMATTR InstName XOR_GATE
SYMBOL voltage -48 112 R0
WINDOW 3 -368 56 Left 2
WINDOW 123 0 0 Left 2
WINDOW 39 0 0 Left 2
SYMATTR Value PULSE(0 1 0 1n 1n 30n 60n 6)
SYMATTR InstName V1
SYMBOL voltage 16 224 R0
WINDOW 123 0 0 Left 2
WINDOW 39 0 0 Left 2
SYMATTR InstName V2
SYMATTR Value PULSE(0 1 0 1n 1n 60n 120n 6)
TEXT -416 200 Left 2 !.tran 250n
